   ---   75   cards of disk file read into card cache cells  1   onward.
 <===> Done with  "/"-card sorting by data class.    Remember that the source file appears different from interpreted input data.
Alternative Transients Program (ATP),  Intel Visual Fortran.    All rights reserved by Can/Am user group of Portland, Oregon, USA.
 Date (dd-mth-yy) and time of day (hh.mm.ss) = 14-Oct-20  19.07.03    Name of disk plot file is  test.pl4
Consult the 860-page ATP Rule Book of the Can/Am EMTP User Group in Portland,  Oregon, USA.  Source code date is 19 June 2017.
Total size of LABCOM tables = 14765213 INTEGER words.  31 VARDIM  List Sizes follow:  6002  10K  192K  20K  420K  1200  15K
  120K  2250  3800  720  2K  72800  510  800K  800  90  254  800K  100K  3K  15K  192K  120  45K  260K  10K  210K  1100  19  100K
--------------------------------------------------+--------------------------------------------------------------------------------
Descriptive interpretation of input data cards.   |  Input data card images are shown below, all 80 columns, character by character
                                                  0         1         2         3         4         5         6         7         8
                                                  012345678901234567890123456789012345678901234567890123456789012345678901234567890
--------------------------------------------------+--------------------------------------------------------------------------------
Comment card.   Card index = 1.                   |C data:test.atp
Marker card preceding new EMTP data case.         |BEGIN NEW DATA CASE
Comment card.   Card index = 3.                   |C --------------------------------------------------------
Comment card.   Card index = 4.                   |C Generated by YALUK DRAW 2.0
Comment card.   Card index = 5.                   |C Developed by: Ernesto Pérez G
Comment card.   Card index = 6.                   |C eperezg@unal.edu.co
Comment card.   Card index = 7.                   |C Universidad Nacional de Colombia
Comment card.   Card index = 8.                   |C File Created on: 9/29/2020 10:38:01 PM
Comment card.   Card index = 9.                   |C --------------------------------------------------------
Comment card.   Card index = 10.                  |C Project Name:test
Comment card.   Card index = 11.                  |C
Comment card.   Card index = 12.                  |C  dT  >< Tmax >< Xopt >< Copt >
Misc. data.     1.000E-08   2.000E-05   0.000E+00 |.1000E-7.2000E-4
Misc. data.  999K  1  1  1  1  0  0  1  0  0      |  999999       1       1       1       1       0       0       1       0
No TACS data,  but MODELS data begins (next).     |MODELS
      Another ordinary MODELS data card.          |INPUT
      Another ordinary MODELS data card.          |M0001A  {v(N0001A)}
      Another ordinary MODELS data card.          |M0002A  {v(N0002A)}
      Another ordinary MODELS data card.          |OUTPUT
      Another ordinary MODELS data card.          |   L0001A
      Another ordinary MODELS data card.          |   R0001A
      Another ordinary MODELS data card.          |MODEL Yaluk1
      Another ordinary MODELS data card.          | -- This model is link with ATP by means of a iluminated line characteristic met
      Another ordinary MODELS data card.          | -- It must have four inputs for one single line (Va,Ia,Vb,Ib)
      Another ordinary MODELS data card.          |CONST
      Another ordinary MODELS data card.          |cond {VAL:1} --num. phases
      Another ordinary MODELS data card.          |INPUT
      Another ordinary MODELS data card.          |  Va[1..cond]
      Another ordinary MODELS data card.          |  Vb[1..cond]
      Another ordinary MODELS data card.          |VAR Vfa[1..cond],Vfb[1..cond]
      Another ordinary MODELS data card.          |OUTPUT
      Another ordinary MODELS data card.          |   Vfa,Vfb
      Another ordinary MODELS data card.          |DATA
      Another ordinary MODELS data card.          |	No_Lin
      Another ordinary MODELS data card.          |MODEL yaluk_f FOREIGN YALUK_DLL_MODEL {ixdata:4, ixin:3, ixout:2, ixvar:200}
      Another ordinary MODELS data card.          |EXEC -- using the DLL subroutine
      Another ordinary MODELS data card.          |  USE yaluk_f AS yaluk_f
      Another ordinary MODELS data card.          |    DATA xdata[1..4]:=[timestep,stoptime,cond,No_Lin]
      Another ordinary MODELS data card.          |    INPUT xin[1..2*cond+1]:=[t,Va[1..cond],Vb[1..cond]]
      Another ordinary MODELS data card.          |  --    HISTORY histdef(xvar[1]):=0
      Another ordinary MODELS data card.          |    OUTPUT 	Vfa[1..cond]:=xout[1..cond]
      Another ordinary MODELS data card.          |		Vfb[1..cond]:=xout[cond+1..2*cond]
      Another ordinary MODELS data card.          |  ENDUSE
      Another ordinary MODELS data card.          |  ENDEXEC
      Another ordinary MODELS data card.          |ENDMODEL
      Another ordinary MODELS data card.          |USE Yaluk1 AS Yaluk0001
      Another ordinary MODELS data card.          |INPUT
      Another ordinary MODELS data card.          |  Va[1]:=M0001A
      Another ordinary MODELS data card.          |  Vb[1]:=M0002A
      Another ordinary MODELS data card.          |DATA
      Another ordinary MODELS data card.          |  No_Lin:=1
      Another ordinary MODELS data card.          |OUTPUT
      Another ordinary MODELS data card.          |  L0001A:=Vfa[1]
      Another ordinary MODELS data card.          |  R0001A:=Vfb[1]
      Another ordinary MODELS data card.          |ENDUSE
Termination of data for Laurent Dube`s MODELS.    |ENDMODELS
Optional blank card follows last of MODELS data.  |BLANK MODELS
Comment card.   Card index = 58.                  |C < n1 >< n2 ><ref1><ref2>< R  >< A  >< B  >
Series R-L-C.   4.522E+02  0.000E+00  0.000E+00   |  N0001AL0001A            0452.2                                               0
Series R-L-C.   4.522E+02  0.000E+00  0.000E+00   |  N0002AR0001A            0452.2                                               0
Series R-L-C.   1.000E+01  2.000E-05  0.000E+00   |  N0001A                  0010.0     2                                         0
Blank card ending branches.  IBR, NTOT = 3  5     |BLANK BRANCH
Blank card ending switches.   KSWTCH = 0.         |BLANK SWITCH
Comment card.   Card index = 64.                  |C < n 1><>< Ampl.  >< Freq.  ><Phase/T0><   A1   ><   T1   >< TSTART >< TSTOP  >
Source.   0.00E+00  0.00E+00  0.00E+00  0.00E+00  |60L0001A                                                             0      1.E3
Source.   0.00E+00  0.00E+00  0.00E+00  0.00E+00  |60R0001A                                                             0      1.E3
Blank card ends electric sources.  KCONST = 2     |BLANK SOURCE

List of input elements that are connected to each node.   Only the physical connections of multi-phase lines are shown (capacitive
and inductive coupling are ignored).   Repeated entries indicate parallel connections.   Switches are included,  although sources
(including rotating machinery) are omitted -- except that U.M. usage produces extra,  internally-defined nodes  "UMXXXX".
--------------+------------------------------
From bus name |  Names of all adjacent busses.
--------------+------------------------------
       N0001A |TERRA *L0001A*
       L0001A |N0001A*
       N0002A |R0001A*
       R0001A |N0002A*
       TERRA  |N0001A*
       ------ |-------

Card of names for time-step loop output.          |  N0001AN0002A
Comment card.   Card index = 69.                  |C ENDING DIRECTIVES
Blank card ending requests for output variables.  |BLANK OUTPUT

Column headings for the  2   EMTP output variables follow.  These are divided among the 5 possible classes as follows ....
  First  2     output variables are electric-network voltage differences (upper voltage minus lower voltage);
   Step      Time      N0001A     N0002A
 
      0       0.0         0.0        0.0
  % % % % % %   Final time step,  PLTFIL  dumps plot data to ".PL4" disk file.
  Done dumping plot points to C-like disk file.
   2000     .2E-4  -1139.1263 -39572.304

Extrema of output variables follow.   Order and column positioning are the same as for the preceding time-step loop output.
Variable maxima :  7568.11067 164062.543
Times of maxima :     .242E-5     .33E-5
Variable minima :   -5721.231  -139763.9
Times of minima :     .596E-5     .68E-5

Blank card terminating all plot cards.            |BLANK PLOT

Memory storage figures for the preceding, now-completed data case.  -------------------------------  Present   Program
A value of  "-9999"  indicates that no figure is available.         14-Oct-20  19.07.07              figure     limit  (name)
     Size List 1.   Number of electric network nodes.                                                    5      6000  (LBUS)
     Size List 2.   Number of electric network branches.                                                 3     10000  (LBRNCH)
     Size List 3.   Number of data values in R, L, C tables.                                             3      192K  (LDATA)
     Size List 4.   Number of electric network sources.                                                  2     20000  (LEXCT)
     Size List 5.   Storage for [Y] & triangularized [Y].  No. times = 1   Factors = 4                   8      420K  (LYMAT)
     Size List 6.   Number of entries in switch table.                  No. flops = 0                    0      1200  (LSWTCH)
     Size List 7.   Number of distinct ALPHANUMERIC data names plus program SPY variables.              10     15000  (LSIZE7)
     Size List 8.   History points of distributed lines.                                                 0      120K  (LPAST)
     Size List 9.   Number of nonlinear elements.                                                        0      2250  (LNONL)
     Size List 10.  Points of nonlinear characteristics.                                                 0      3800  (LCHAR)
     Size List 11.  Number of Type-59 S.M. outputs.                                                      0       720  (LSMOUT)
     Size List 12.  Total number of EMTP output variables.                                               2      2000  (LSIZ12)
     Size List 13.  Working space for batch/SPY plotting.                                            -9999     72800  (LSIZ13)
     Size List 14.  S.M./U.M. connections to TACS.                                                   -9999       510  (LBSTAC)
     Size List 15.  Character storage in bytes for MODELS.                                            2149      800K  (LCTACS)
     Size List 16.  Total number of Type-59 S.M. masses.                                                 0       800  (LIMASS)
     Size List 17.  Number of Type-59 Synchronous machines.                                              0        90  (LSYN)
     Size List 18.  Branch and switch power/energy outputs.                                              0       254  (MAXPE)
     Size List 19.  Total floating-point TACS table space.                                              23      800K  (LTACST)
     Size List 20.  Non-copied recursive convolution data plus SEEK of MODELS.                           0      100K  (LFSEM)
     Size List 21.  Total modal/phase [T] matrix storage.                                                0      3000  (LFD)
     Size List 22.  Total recursive convolution history.                                                 0     15000  (LHIST)
     Size List 23.  Giant vectors for renumbering, phasors;  also extrema accumulation.                  2      192K  (LSIZ23)
     Size List 24.  Peak phases of compensation for data.                                                0       120  (LCOMP)
     Size List 25.  Total table space for all U.M usage.                                             -9999     45000  (LSPCUM)
     Size List 26.  Square of max number of coupled phases.                                              0      260K  (LSIZ26)
     Size List 27.  Maximum number of MODELS top variables.                                              4     10000  (LSIZ27)
     Size List 28.  MODELS.  Total work space is divided into INTEGER and REAL.  1st, REAL:           2155      210K  (LRTACS)
                             Second  and last,  statistics for INTEGER work space.                    7272         0  (LITACS)
     Size List 29.  RAM disk used by "TAPSAV" table saving (limit is "LABCOM" size LTLABL).          -9999      1100  (LSIZ29)
     Size List 30.  ULM line or Noda line or User line circuits.                                           0        19  (LSIZ30)
Timing figures characterizing central processor (CP) solution speed.  ----------------------------   CP sec  Wait sec  Real sec
     Data input time (through blank card ending branches) ....                                       0.000     0.000     0.000
     Node renumbering and phasor solution  ....                                                      0.000     0.000     0.000
     After phasor solution, but before time-step loop  ....                                          0.047     0.000     0.047
     Integration of equations (time-step loop)  ....                                                 3.547     0.000     3.547
     Plotting or STATISTICS termination overlays ....                                                0.000     0.000     0.000
                                                                                                    ---------------------------
                                                                                          Totals      3.594     0.000     3.594

